Circuit: * Carga condensador

Direct Newton iteration for .op point succeeded.

Date: Wed Jan 06 12:30:09 2021
Total elapsed time: 0.084 seconds.

tnom = 27
temp = 27
method = modified trap
totiter = 2091
traniter = 2088
tranpoints = 1045
accept = 1045
rejected = 0
matrix size = 7
fillins = 0
solver = Normal
Matrix Compiler1: 232 bytes object code size  0.1/0.1/[0.0]
Matrix Compiler2: 429 bytes object code size  0.1/0.1/[0.1]

