Circuit: * Este es un circuito sencillo adaptado para LTspice


Date: Wed Jan 06 12:29:24 2021
Total elapsed time: 0.024 seconds.

tnom = 27
temp = 27
method = trap
totiter = 2003
traniter = 0
tranpoints = 0
accept = 0
rejected = 0
matrix size = 2
fillins = 0
solver = Normal
Matrix Compiler1: 36 bytes object code size  0.1/0.0/[0.0]
Matrix Compiler2: 96 bytes object code size  0.0/0.0/[0.0]

