Circuit: * Circuito en corriente alterna

.OP point found by inspection.

Date: Wed Jan 06 12:30:13 2021
Total elapsed time: 0.043 seconds.

tnom = 27
temp = 27
method = modified trap
totiter = 4128
traniter = 4128
tranpoints = 2065
accept = 1532
rejected = 533
matrix size = 2
fillins = 0
solver = Normal
Matrix Compiler1:       2 opcodes  0.1/[0.0]/0.0
Matrix Compiler2: 96 bytes object code size  0.0/0.0/[0.0]

